pyflow_acdc/examples/CigreB4/CigreB4_AC_node_data.csv
Node_id,type,Voltage_0,theta_0,Power_Gained,Reactive_Gained,Power_load,Reactive_load,Umin,Umax
BaA0,Slack,1,0,0,0,0,0,0.9,1.1
BaA1,PV,1,0.1,2000,0,1000,0,0.9,1.1
BaB0,Slack,1,0,0,0,0,0,0.9,1.1
BaB1,PV,1,0.1,1000,0,2200,0,0.9,1.1
BaB2,PV,1,0.1,1000,0,2300,0,0.9,1.1
BaB3,PV,1,0.1,1000,0,1900,0,0.9,1.1
BoC1,Slack,1,0,500,0,0,0,1,1
BoC2,PV,1,0.1,500,0,0,0,0.9,1.1
BoD1,Slack,1,0,1000,0,0,0,1,1
BoE1,Slack,1,0,0,0,100,0,1,1
BoF1,Slack,1,0,500,0,0,0,1,1
